Circuit: * Z:\home\pab\Circuits\analog-vg-circuit-stabber\analog-vg-circuit-stabber.asc

Per .tran options, skipping operating point for transient analysis.

Date: Sun Jul 26 15:35:52 2020
Total elapsed time: 1.664 seconds.

tnom = 27
temp = 27
method = modified trap
totiter = 100201
traniter = 100201
tranpoints = 50078
accept = 50058
rejected = 20
matrix size = 16
fillins = 0
solver = Normal
Matrix Compiler1: 916 bytes object code size  0.5/0.2/[0.1]
Matrix Compiler2: 1.71 KB object code size  0.3/0.4/[0.2]

