Circuit: * Z:\home\pab\Circuits\analog-vg-circuit-stabber\analog-vg-circuit-stabber-protov1.asc

Per .tran options, skipping operating point for transient analysis.

Date: Sun Jul 26 13:26:35 2020
Total elapsed time: 1.109 seconds.

tnom = 27
temp = 27
method = modified trap
totiter = 100188
traniter = 100188
tranpoints = 50071
accept = 50054
rejected = 17
matrix size = 13
fillins = 0
solver = Normal
Matrix Compiler1: 658 bytes object code size  0.4/0.2/[0.1]
Matrix Compiler2: 1.28 KB object code size  0.3/0.4/[0.2]

